Clear

New Circuit.default

Redirect Voltagebases_default.dss
Redirect Capacitor_default.dss
Redirect Line_default.dss
Redirect Transformer_default.dss
Redirect Load_default.dss
Redirect RegControl_default.dss
Redirect GrowthShape_default.dss
Redirect LineCode_default.dss
Redirect LoadShape_default.dss
Redirect Spectrum_default.dss
Redirect TCC_Curve_default.dss
Redirect Vsource_default.dss

LatLongCoords Buscoords_default.csv

solve