New "Line.650632" bus1=rg60.1.2.3 bus2=632.1.2.3 linecode=mtx601 length=2000.0 phases=3 rmatrix=[0.000065625 |0.0000295454545454545 0.0000639204545454546 |0.0000299242424242424 0.0000290719696969697 0.0000646590909090909] xmatrix=[0.000192784090909091 |0.0000950189393939394 0.00019844696969697 |0.0000802272727272727 0.0000728977272727273 0.000195984848484848] cmatrix=[0.00053030303030303 |-0.000113636363636364 0.00053030303030303 |-0.000113636363636364 -0.000113636363636364 0.00053030303030303] Rg=0.01805 Xg=0.155081 rho=100 units=ft EarthModel=Deri Seasons=1 Ratings=[400.0] normamps=400 emergamps=600 faultrate=0.1 pctperm=20 repair=3 basefreq=60 enabled=Yes 
New "Line.632670" bus1=632.1.2.3 bus2=670.1.2.3 linecode=mtx601 length=667.0 phases=3 rmatrix=[0.000065625 |0.0000295454545454545 0.0000639204545454546 |0.0000299242424242424 0.0000290719696969697 0.0000646590909090909] xmatrix=[0.000192784090909091 |0.0000950189393939394 0.00019844696969697 |0.0000802272727272727 0.0000728977272727273 0.000195984848484848] cmatrix=[0.00053030303030303 |-0.000113636363636364 0.00053030303030303 |-0.000113636363636364 -0.000113636363636364 0.00053030303030303] Rg=0.01805 Xg=0.155081 rho=100 units=ft EarthModel=Deri Seasons=1 Ratings=[400.0] normamps=400 emergamps=600 faultrate=0.1 pctperm=20 repair=3 basefreq=60 enabled=Yes 
New "Line.670671" bus1=670.1.2.3 bus2=671.1.2.3 linecode=mtx601 length=1333.0 phases=3 rmatrix=[0.000065625 |0.0000295454545454545 0.0000639204545454546 |0.0000299242424242424 0.0000290719696969697 0.0000646590909090909] xmatrix=[0.000192784090909091 |0.0000950189393939394 0.00019844696969697 |0.0000802272727272727 0.0000728977272727273 0.000195984848484848] cmatrix=[0.00053030303030303 |-0.000113636363636364 0.00053030303030303 |-0.000113636363636364 -0.000113636363636364 0.00053030303030303] Rg=0.01805 Xg=0.155081 rho=100 units=ft EarthModel=Deri Seasons=1 Ratings=[400.0] normamps=400 emergamps=600 faultrate=0.1 pctperm=20 repair=3 basefreq=60 enabled=Yes 
New "Line.671680" bus1=671.1.2.3 bus2=680.1.2.3 linecode=mtx601 length=1000.0 phases=3 rmatrix=[0.000065625 |0.0000295454545454545 0.0000639204545454546 |0.0000299242424242424 0.0000290719696969697 0.0000646590909090909] xmatrix=[0.000192784090909091 |0.0000950189393939394 0.00019844696969697 |0.0000802272727272727 0.0000728977272727273 0.000195984848484848] cmatrix=[0.00053030303030303 |-0.000113636363636364 0.00053030303030303 |-0.000113636363636364 -0.000113636363636364 0.00053030303030303] Rg=0.01805 Xg=0.155081 rho=100 units=ft EarthModel=Deri Seasons=1 Ratings=[400.0] normamps=400 emergamps=600 faultrate=0.1 pctperm=20 repair=3 basefreq=60 enabled=Yes 
New "Line.632633" bus1=632.1.2.3 bus2=633.1.2.3 linecode=mtx602 length=500.0 phases=3 rmatrix=[0.000142537878787879 |0.0000299242424242424 0.00014157196969697 |0.0000295454545454545 0.0000290719696969697 0.000140833333333333] xmatrix=[0.00022375 |0.0000802272727272727 0.000226950757575758 |0.0000950189393939394 0.0000728977272727273 0.000229393939393939] cmatrix=[0.00053030303030303 |-0.000113636363636364 0.00053030303030303 |-0.000113636363636364 -0.000113636363636364 0.00053030303030303] Rg=0.01805 Xg=0.155081 rho=100 units=ft EarthModel=Deri Seasons=1 Ratings=[400.0] normamps=400 emergamps=600 faultrate=0.1 pctperm=20 repair=3 basefreq=60 enabled=Yes 
New "Line.632645" bus1=632.3.2 bus2=645.3.2 linecode=mtx603 length=500.0 phases=2 rmatrix=[0.000250719696969697 |0.0000391287878787879 0.000251780303030303] xmatrix=[0.000256988636363636 |0.0000869507575757576 0.000255132575757576] cmatrix=[0.00053030303030303 |-0.000113636363636364 0.00053030303030303] Rg=0.01805 Xg=0.155081 rho=100 units=ft EarthModel=Deri Seasons=1 Ratings=[400.0] normamps=400 emergamps=600 faultrate=0.1 pctperm=20 repair=3 basefreq=60 enabled=Yes 
New "Line.645646" bus1=645.3.2 bus2=646.3.2 linecode=mtx603 length=300.0 phases=2 rmatrix=[0.000250719696969697 |0.0000391287878787879 0.000251780303030303] xmatrix=[0.000256988636363636 |0.0000869507575757576 0.000255132575757576] cmatrix=[0.00053030303030303 |-0.000113636363636364 0.00053030303030303] Rg=0.01805 Xg=0.155081 rho=100 units=ft EarthModel=Deri Seasons=1 Ratings=[400.0] normamps=400 emergamps=600 faultrate=0.1 pctperm=20 repair=3 basefreq=60 enabled=Yes 
New "Line.692675" bus1=692.1.2.3 bus2=675.1.2.3 linecode=mtx606 length=500.0 phases=3 rmatrix=[0.000149947159090909 |0.0000603174242424242 0.000148039583333333 |0.0000536837121212121 0.0000603174242424242 0.000149947159090909] xmatrix=[0.0000830212121212121 |5.24314393939394E-6 0.0000751320075757576 |-3.48871212121212E-6 5.24314393939394E-6 0.0000830212121212121] cmatrix=[0.0727174242424243 |0 0.0727174242424243 |0 0 0.0727174242424243] Rg=0.01805 Xg=0.155081 rho=100 units=ft EarthModel=Deri Seasons=1 Ratings=[400.0] normamps=400 emergamps=600 faultrate=0.1 pctperm=20 repair=3 basefreq=60 enabled=Yes 
New "Line.671684" bus1=671.1.3 bus2=684.1.3 linecode=mtx604 length=300.0 phases=2 rmatrix=[0.000250719696969697 |0.0000391287878787879 0.000251780303030303] xmatrix=[0.000256988636363636 |0.0000869507575757576 0.000255132575757576] cmatrix=[0.00053030303030303 |-0.000113636363636364 0.00053030303030303] Rg=0.01805 Xg=0.155081 rho=100 units=ft EarthModel=Deri Seasons=1 Ratings=[400.0] normamps=400 emergamps=600 faultrate=0.1 pctperm=20 repair=3 basefreq=60 enabled=Yes 
New "Line.684611" bus1=684.3 bus2=611.3 linecode=mtx605 length=300.0 phases=1 rmatrix=[0.000251742424242424] xmatrix=[0.000255208333333333] cmatrix=[0.00053030303030303] Rg=0.01805 Xg=0.155081 rho=100 units=ft EarthModel=Deri Seasons=1 Ratings=[400.0] normamps=400 emergamps=600 faultrate=0.1 pctperm=20 repair=3 basefreq=60 enabled=Yes 
New "Line.684652" bus1=684.1 bus2=652.1 linecode=mtx607 length=800.0 phases=1 rmatrix=[0.000254261363636364] xmatrix=[9.70454545454545e-05] cmatrix=[0.0446969696969697] Rg=0.01805 Xg=0.155081 rho=100 units=ft EarthModel=Deri Seasons=1 Ratings=[400.0] normamps=400 emergamps=600 faultrate=0.1 pctperm=20 repair=3 basefreq=60 enabled=Yes 
New "Line.671692" bus1=671.0 bus2=692.0 length=0.001 phases=3 r1=0.0001 r0=0.0001 rmatrix=[0.0001 |0 0.0001 |0 0 0.0001] xmatrix=[0 |0 0 |0 0 0] cmatrix=[0 |0 0 |0 0 0] Switch=Yes Rg=0.01805 Xg=0.155081 rho=100 EarthModel=Deri Seasons=1 Ratings=[400.0] normamps=400 emergamps=600 faultrate=0.1 pctperm=20 repair=3 basefreq=60 enabled=Yes 
